Version 4
SHEET 1 2424 1676
WIRE 704 -1136 -288 -1136
WIRE -1184 -960 -1248 -960
WIRE -1024 -960 -1104 -960
WIRE -752 -960 -944 -960
WIRE -288 -960 -288 -1136
WIRE -288 -960 -672 -960
WIRE -208 -960 -288 -960
WIRE -128 -960 -208 -960
WIRE 176 -960 -32 -960
WIRE 336 -960 176 -960
WIRE 848 -960 336 -960
WIRE 1088 -960 848 -960
WIRE 1184 -960 1088 -960
WIRE 1328 -960 1184 -960
WIRE 1600 -960 1424 -960
WIRE 1856 -960 1600 -960
WIRE 1968 -960 1856 -960
WIRE 2192 -960 1968 -960
WIRE -208 -928 -208 -960
WIRE 176 -928 176 -960
WIRE 336 -928 336 -960
WIRE 704 -928 704 -1136
WIRE 1600 -928 1600 -960
WIRE 1184 -896 1184 -960
WIRE 848 -880 848 -960
WIRE 1088 -880 1088 -960
WIRE 1856 -880 1856 -960
WIRE 1968 -880 1968 -960
WIRE -48 -864 -48 -912
WIRE -688 -848 -688 -912
WIRE 704 -832 704 -848
WIRE 784 -832 704 -832
WIRE 1344 -832 1344 -912
WIRE -208 -816 -208 -848
WIRE 336 -816 336 -848
WIRE -736 -768 -736 -912
WIRE -48 -768 -48 -784
WIRE 176 -768 176 -864
WIRE 176 -768 -48 -768
WIRE 704 -768 704 -832
WIRE 1856 -768 1856 -800
WIRE -48 -752 -48 -768
WIRE 848 -736 848 -784
WIRE 1088 -736 1088 -816
WIRE 1088 -736 848 -736
WIRE 1184 -736 1184 -832
WIRE 1184 -736 1088 -736
WIRE 1344 -736 1344 -752
WIRE 1344 -736 1184 -736
WIRE 1440 -736 1344 -736
WIRE 1600 -736 1600 -864
WIRE 1600 -736 1520 -736
WIRE -208 -720 -208 -752
WIRE 336 -720 336 -752
WIRE 1184 -704 1184 -736
WIRE 1600 -688 1600 -736
WIRE 1968 -688 1968 -800
WIRE 704 -672 704 -704
WIRE 1856 -672 1856 -704
WIRE 1968 -672 1968 -688
WIRE -736 -656 -736 -688
WIRE -48 -624 -48 -672
WIRE 1344 -608 1344 -736
WIRE 1600 -608 1600 -624
WIRE 1600 -608 1344 -608
WIRE 1184 -592 1184 -624
WIRE 1600 -576 1600 -608
WIRE 704 -560 704 -592
WIRE 1600 -464 1600 -512
WIRE -32 -224 -96 -224
WIRE 80 -224 -32 -224
WIRE 176 -224 80 -224
WIRE -32 -192 -32 -224
WIRE 80 -192 80 -224
WIRE 176 -192 176 -224
WIRE 512 -144 304 -144
WIRE -32 -80 -32 -128
WIRE 80 -80 80 -128
WIRE 176 -80 176 -112
WIRE 304 -80 304 -144
WIRE 512 -80 512 -144
WIRE -928 32 -928 -16
WIRE -928 32 -1024 32
WIRE 512 32 512 -16
WIRE -1024 64 -1024 32
WIRE -448 96 -544 96
WIRE -96 96 -96 -224
WIRE -96 96 -368 96
WIRE -32 96 -96 96
WIRE 96 96 -32 96
WIRE 304 96 304 0
WIRE 304 96 176 96
WIRE 400 96 304 96
WIRE 512 96 464 96
WIRE -32 112 -32 96
WIRE -928 144 -928 32
WIRE -1024 160 -1024 128
WIRE 304 160 304 96
WIRE 512 160 512 96
WIRE -32 192 -32 176
WIRE -384 208 -384 144
WIRE -928 240 -928 224
WIRE -928 240 -1184 240
WIRE -816 240 -928 240
WIRE -1184 272 -1184 240
WIRE -928 272 -928 240
WIRE 304 272 304 224
WIRE 512 272 512 224
WIRE -432 288 -432 144
WIRE -1184 384 -1184 336
WIRE -928 384 -928 352
WIRE -928 384 -1184 384
WIRE -1184 400 -1184 384
WIRE -928 400 -928 384
WIRE -432 400 -432 368
WIRE -1184 528 -1184 464
WIRE -928 528 -928 480
WIRE -928 528 -1184 528
WIRE -816 528 -928 528
WIRE -816 544 -816 528
FLAG -928 -16 Vin
FLAG -816 544 0
FLAG -1248 -960 Vin
FLAG -384 208 0
FLAG -432 400 0
FLAG 304 272 0
FLAG -1024 160 0
FLAG -544 96 backplane
FLAG -32 192 0
FLAG 2192 -960 backplane
FLAG 1184 -592 0
FLAG 1600 -464 0
FLAG 1856 -672 0
FLAG 512 272 0
FLAG 704 -560 0
FLAG 336 -720 0
FLAG -48 -624 0
FLAG -208 -720 0
FLAG 512 32 0
FLAG 176 -80 0
FLAG 80 -80 0
FLAG -32 -80 0
FLAG -688 -848 0
FLAG -736 -656 0
FLAG 1968 -688 0
SYMBOL voltage -928 128 R0
WINDOW 123 24 146 Left 2
WINDOW 39 24 44 Left 2
SYMATTR Value 16
SYMATTR InstName V3
SYMBOL ind -1040 -944 R270
WINDOW 0 32 56 VTop 2
WINDOW 3 5 56 VBottom 2
SYMATTR InstName L1
SYMATTR Value 3µ
SYMBOL sw -352 96 M270
SYMATTR InstName S1
SYMATTR Value MYSW
SYMBOL voltage -432 272 R0
WINDOW 123 24 146 Left 2
WINDOW 39 24 44 Left 2
SYMATTR Value PULSE(0 15 100 10u 10u 1)
SYMATTR InstName V2
SYMBOL current -928 400 R0
SYMATTR InstName I1
SYMATTR Value {Imax}
SYMBOL current -928 352 R180
WINDOW 0 24 80 Left 2
WINDOW 3 24 0 Left 2
SYMATTR InstName I2
SYMATTR Value {Imax}
SYMBOL diode -1168 464 R180
WINDOW 0 24 64 Left 2
WINDOW 3 24 0 Left 2
SYMATTR InstName D1
SYMATTR Value idealDiode
SYMBOL diode -1200 272 R0
SYMATTR InstName D2
SYMATTR Value idealDiode
SYMBOL cap -1040 64 R0
SYMATTR InstName C4
SYMATTR Value 100µ
SYMATTR SpiceLine Rser=1
SYMBOL res -1088 -976 R90
WINDOW 0 0 56 VBottom 2
WINDOW 3 32 56 VTop 2
SYMATTR InstName R1
SYMATTR Value 10m
SYMBOL polcap 288 160 R0
WINDOW 3 24 56 Left 2
SYMATTR Value 47µ
SYMATTR InstName C2
SYMATTR Description Capacitor
SYMATTR Type cap
SYMATTR SpiceLine V=50 Irms=1.47 Rser=0.07 Lser=0
SYMBOL ind 80 112 R270
WINDOW 0 32 56 VTop 2
WINDOW 3 5 56 VBottom 2
SYMATTR InstName L2
SYMATTR Value 100µ
SYMATTR SpiceLine Rser=500m
SYMBOL cap -48 112 R0
SYMATTR InstName C9
SYMATTR Value 1µ
SYMATTR SpiceLine V=50 Irms=0 Rser=0.008 Lser=0 mfg="TDK" pn="C3225X7RlHlO5M" type="X7R"
SYMBOL cap 1168 -896 R0
SYMATTR InstName C10
SYMATTR Value 1µ
SYMBOL res 1328 -848 R0
SYMATTR InstName R3
SYMATTR Value 100
SYMBOL cap 1584 -928 R0
SYMATTR InstName C11
SYMATTR Value 100n
SYMBOL res 1536 -752 R90
WINDOW 0 0 56 VBottom 2
WINDOW 3 32 56 VTop 2
SYMATTR InstName R4
SYMATTR Value 10k
SYMBOL res 1168 -720 R0
SYMATTR InstName R5
SYMATTR Value 200k
SYMBOL Contrib\\Toshiba\\diode\\BAV99 1616 -624 R180
WINDOW 0 24 64 Left 2
WINDOW 3 24 0 Left 2
SYMATTR InstName U1
SYMBOL Contrib\\Toshiba\\diode\\BAV99 1616 -512 R180
WINDOW 0 24 64 Left 2
WINDOW 3 24 0 Left 2
SYMATTR InstName U2
SYMBOL cap 1840 -768 R0
WINDOW 123 26 77 Left 2
SYMATTR Value2 x9
SYMATTR InstName C12
SYMATTR Value 220µ
SYMATTR SpiceLine Rser=0.13
SYMBOL diode 400 112 R270
WINDOW 0 32 32 VTop 2
WINDOW 3 0 32 VBottom 2
SYMATTR InstName D3
SYMATTR Value 1N4148
SYMBOL polcap 496 160 R0
WINDOW 3 24 56 Left 2
SYMATTR Value 100µ
SYMATTR InstName C1
SYMATTR Description Capacitor
SYMATTR Type cap
SYMATTR SpiceLine V=50 Irms=500m Rser=0.23 Lser=0 mfg="Panasonic" pn="ECA1HFQ101" type="Al electrolytic"
SYMBOL zener 1104 -816 R180
WINDOW 0 24 64 Left 2
WINDOW 3 24 0 Left 2
SYMATTR InstName D4
SYMATTR Value MMBZ18VALY
SYMATTR Description Diode
SYMATTR Type diode
SYMBOL pnp 784 -784 M180
SYMATTR InstName Q1
SYMATTR Value 2N3906
SYMBOL zener 720 -704 R180
WINDOW 0 24 64 Left 2
WINDOW 3 24 0 Left 2
SYMATTR InstName D5
SYMATTR Value MMBZ18VALY
SYMATTR Description Diode
SYMATTR Type diode
SYMBOL res 688 -944 R0
SYMATTR InstName R2
SYMATTR Value 100k
SYMBOL res 688 -688 R0
SYMATTR InstName R7
SYMATTR Value 10k
SYMBOL cap 320 -816 R0
SYMATTR InstName C3
SYMATTR Value 1µ
SYMBOL res 320 -944 R0
SYMATTR InstName R8
SYMATTR Value 20
SYMBOL zener 192 -864 R180
WINDOW 0 24 64 Left 2
WINDOW 3 24 0 Left 2
SYMATTR InstName D6
SYMATTR Value MMBZ18VALY
SYMATTR Description Diode
SYMATTR Type diode
SYMBOL res -64 -880 R0
SYMATTR InstName R9
SYMATTR Value 100
SYMBOL res -64 -768 R0
SYMATTR InstName R10
SYMATTR Value 100k
SYMBOL cap -224 -816 R0
SYMATTR InstName C5
SYMATTR Value 1µ
SYMBOL res -224 -944 R0
SYMATTR InstName R11
SYMATTR Value 20
SYMBOL res 288 -96 R0
SYMATTR InstName R12
SYMATTR Value 5
SYMBOL cap 496 -80 R0
SYMATTR InstName C6
SYMATTR Value 22µ
SYMBOL polcap -48 -192 R0
WINDOW 3 24 56 Left 2
SYMATTR Value 100µ
SYMATTR InstName C7
SYMATTR Description Capacitor
SYMATTR Type cap
SYMATTR SpiceLine V=50 Irms=500m Rser=0.23 Lser=0 mfg="Panasonic" pn="ECA1HFQ101" type="Al electrolytic"
SYMBOL cap 64 -192 R0
SYMATTR InstName C8
SYMATTR Value 0.01µ
SYMATTR SpiceLine V=100 Irms=270m Rser=0.379979 Lser=0 mfg="KEMET" pn="C1206C103K1RAC" type="X7R"
SYMBOL res 160 -208 R0
SYMATTR InstName R13
SYMATTR Value 1.5k
SYMBOL res 1840 -896 R0
SYMATTR InstName R6
SYMATTR Value 1m
SYMBOL sw -656 -960 M270
SYMATTR InstName S2
SYMATTR Value MYSW
SYMBOL voltage -736 -784 R0
WINDOW 123 24 146 Left 2
WINDOW 39 24 44 Left 2
SYMATTR Value PULSE(0 15 100u 10u 10u 1)
SYMATTR InstName V1
SYMBOL res 1952 -896 R0
SYMATTR InstName R14
SYMATTR Value 1
SYMBOL SQM110P06 -128 -912 R270
SYMATTR InstName U3
SYMBOL SQM110P06 1424 -912 M270
SYMATTR InstName U4
TEXT 184 -1104 Left 2 !.tran 100m
TEXT -1288 -120 Left 2 !.options plotwinsize=0\n.options numdgt=12
TEXT -360 88 Left 0 !.model MYSW SW(Ron=1m Roff=1G Vt=.5 Vh=-.4)
TEXT -1400 344 Left 0 !.model idealDiode D(Ron=0 Roff=1G Vfwd=0)
TEXT -744 288 Left 2 !.param Imax=16
TEXT -1160 -1064 Left 2 ;Wire, typically 1 µH/m
TEXT -664 -968 Left 0 !.model MYSW SW(Ron=1m Roff=1G Vt=.5 Vh=-.4)
LINE Normal -896 -1040 -1200 -1040 2
LINE Normal -896 -848 -896 -1040 2
LINE Normal -1200 -848 -896 -848 2
LINE Normal -1200 -1040 -1200 -848 2
LINE Normal -1200 -1040 -1200 -1040 2
